<?xml version="1.0" encoding="UTF-8"?>
<edges>
    <!-- North-South -->
    <edge id="N_C" from="N" to="C" numLanes="3" speed="13.9"/>
    <edge id="C_N" from="C" to="N" numLanes="3" speed="13.9"/>

    <edge id="S_C" from="S" to="C" numLanes="3" speed="13.9"/>
    <edge id="C_S" from="C" to="S" numLanes="3" speed="13.9"/>

    <!-- East-West -->
    <edge id="E_C" from="E" to="C" numLanes="3" speed="13.9"/>
    <edge id="C_E" from="C" to="E" numLanes="3" speed="13.9"/>

    <edge id="W_C" from="W" to="C" numLanes="3" speed="13.9"/>
    <edge id="C_W" from="C" to="W" numLanes="3" speed="13.9"/>
</edges>

