<edges>
    <!-- Vertical roads -->
    <edge id="N_C" from="N" to="C" numLanes="2" speed="15"/>
    <edge id="C_S" from="C" to="S" numLanes="2" speed="15"/>
    <edge id="S_C" from="S" to="C" numLanes="2" speed="15"/>
    <edge id="C_N" from="C" to="N" numLanes="2" speed="15"/>
    
    <!-- Horizontal roads -->
    <edge id="E_C" from="E" to="C" numLanes="2" speed="15"/>
    <edge id="C_W" from="C" to="W" numLanes="2" speed="15"/>
    <edge id="W_C" from="W" to="C" numLanes="2" speed="15"/>
    <edge id="C_E" from="C" to="E" numLanes="2" speed="15"/>
</edges>
