<?xml version="1.0" encoding="UTF-8"?>

<!-- generated on 2025-09-27 12:43:51 by Eclipse SUMO netconvert Version 1.24.0
<netconvertConfiguration xmlns:xsi="http://www.w3.org/2001/XMLSchema-instance" xsi:noNamespaceSchemaLocation="http://sumo.dlr.de/xsd/netconvertConfiguration.xsd">

    <input>
        <node-files value="nodes.nod.xml"/>
        <edge-files value="edges.edg.xml"/>
    </input>

    <output>
        <output-file value="junction.net.xml"/>
    </output>

</netconvertConfiguration>
-->

<net version="1.20" junctionCornerDetail="5" limitTurnSpeed="5.50" xmlns:xsi="http://www.w3.org/2001/XMLSchema-instance" xsi:noNamespaceSchemaLocation="http://sumo.dlr.de/xsd/net_file.xsd">

    <location netOffset="0.00,0.00" convBoundary="0.00,0.00,100.00,100.00" origBoundary="0.00,0.00,100.00,100.00" projParameter="!"/>

    <edge id=":C_0" function="internal">
        <lane id=":C_0_0" index="0" speed="6.51" length="9.03" shape="45.20,60.40 44.85,57.95 43.80,56.20 42.05,55.15 39.60,54.80"/>
    </edge>
    <edge id=":C_1" function="internal">
        <lane id=":C_1_0" index="0" speed="15.00" length="20.80" shape="45.20,60.40 45.20,39.60"/>
        <lane id=":C_1_1" index="1" speed="15.00" length="20.80" shape="48.40,60.40 48.40,39.60"/>
    </edge>
    <edge id=":C_3" function="internal">
        <lane id=":C_3_0" index="0" speed="9.26" length="5.01" shape="48.40,60.40 49.11,55.44"/>
    </edge>
    <edge id=":C_4" function="internal">
        <lane id=":C_4_0" index="0" speed="3.65" length="1.44" shape="48.40,60.40 49.20,59.20"/>
    </edge>
    <edge id=":C_20" function="internal">
        <lane id=":C_20_0" index="0" speed="9.26" length="14.34" shape="49.11,55.44 49.15,55.15 51.40,51.40 55.15,49.15 60.40,48.40"/>
    </edge>
    <edge id=":C_21" function="internal">
        <lane id=":C_21_0" index="0" speed="3.65" length="3.23" shape="49.20,59.20 50.00,58.80 50.80,59.20 51.60,60.40"/>
    </edge>
    <edge id=":C_5" function="internal">
        <lane id=":C_5_0" index="0" speed="6.51" length="9.03" shape="60.40,54.80 57.95,55.15 56.20,56.20 55.15,57.95 54.80,60.40"/>
    </edge>
    <edge id=":C_6" function="internal">
        <lane id=":C_6_0" index="0" speed="15.00" length="20.80" shape="60.40,54.80 39.60,54.80"/>
        <lane id=":C_6_1" index="1" speed="15.00" length="20.80" shape="60.40,51.60 39.60,51.60"/>
    </edge>
    <edge id=":C_8" function="internal">
        <lane id=":C_8_0" index="0" speed="9.26" length="5.01" shape="60.40,51.60 55.44,50.89"/>
    </edge>
    <edge id=":C_9" function="internal">
        <lane id=":C_9_0" index="0" speed="3.65" length="1.44" shape="60.40,51.60 59.20,50.80"/>
    </edge>
    <edge id=":C_22" function="internal">
        <lane id=":C_22_0" index="0" speed="9.26" length="14.34" shape="55.44,50.89 55.15,50.85 51.40,48.60 49.15,44.85 48.40,39.60"/>
    </edge>
    <edge id=":C_23" function="internal">
        <lane id=":C_23_0" index="0" speed="3.65" length="3.23" shape="59.20,50.80 58.80,50.00 59.20,49.20 60.40,48.40"/>
    </edge>
    <edge id=":C_10" function="internal">
        <lane id=":C_10_0" index="0" speed="6.51" length="9.03" shape="54.80,39.60 55.15,42.05 56.20,43.80 57.95,44.85 60.40,45.20"/>
    </edge>
    <edge id=":C_11" function="internal">
        <lane id=":C_11_0" index="0" speed="15.00" length="20.80" shape="54.80,39.60 54.80,60.40"/>
        <lane id=":C_11_1" index="1" speed="15.00" length="20.80" shape="51.60,39.60 51.60,60.40"/>
    </edge>
    <edge id=":C_13" function="internal">
        <lane id=":C_13_0" index="0" speed="9.26" length="5.01" shape="51.60,39.60 50.89,44.56"/>
    </edge>
    <edge id=":C_14" function="internal">
        <lane id=":C_14_0" index="0" speed="3.65" length="1.44" shape="51.60,39.60 50.80,40.80"/>
    </edge>
    <edge id=":C_24" function="internal">
        <lane id=":C_24_0" index="0" speed="9.26" length="14.34" shape="50.89,44.56 50.85,44.85 48.60,48.60 44.85,50.85 39.60,51.60"/>
    </edge>
    <edge id=":C_25" function="internal">
        <lane id=":C_25_0" index="0" speed="3.65" length="3.23" shape="50.80,40.80 50.00,41.20 49.20,40.80 48.40,39.60"/>
    </edge>
    <edge id=":C_15" function="internal">
        <lane id=":C_15_0" index="0" speed="6.51" length="9.03" shape="39.60,45.20 42.05,44.85 43.80,43.80 44.85,42.05 45.20,39.60"/>
    </edge>
    <edge id=":C_16" function="internal">
        <lane id=":C_16_0" index="0" speed="15.00" length="20.80" shape="39.60,45.20 60.40,45.20"/>
        <lane id=":C_16_1" index="1" speed="15.00" length="20.80" shape="39.60,48.40 60.40,48.40"/>
    </edge>
    <edge id=":C_18" function="internal">
        <lane id=":C_18_0" index="0" speed="9.26" length="5.01" shape="39.60,48.40 44.56,49.11"/>
    </edge>
    <edge id=":C_19" function="internal">
        <lane id=":C_19_0" index="0" speed="3.65" length="1.44" shape="39.60,48.40 40.80,49.20"/>
    </edge>
    <edge id=":C_26" function="internal">
        <lane id=":C_26_0" index="0" speed="9.26" length="14.34" shape="44.56,49.11 44.85,49.15 48.60,51.40 50.85,55.15 51.60,60.40"/>
    </edge>
    <edge id=":C_27" function="internal">
        <lane id=":C_27_0" index="0" speed="3.65" length="3.23" shape="40.80,49.20 41.20,50.00 40.80,50.80 39.60,51.60"/>
    </edge>
    <edge id=":E_0" function="internal">
        <lane id=":E_0_0" index="0" speed="3.65" length="4.67" shape="100.00,48.40 101.20,49.20 101.60,50.00 101.20,50.80 100.00,51.60"/>
    </edge>
    <edge id=":N_0" function="internal">
        <lane id=":N_0_0" index="0" speed="3.65" length="4.67" shape="51.60,100.00 50.80,101.20 50.00,101.60 49.20,101.20 48.40,100.00"/>
    </edge>
    <edge id=":S_0" function="internal">
        <lane id=":S_0_0" index="0" speed="3.65" length="4.67" shape="48.40,0.00 49.20,-1.20 50.00,-1.60 50.80,-1.20 51.60,0.00"/>
    </edge>
    <edge id=":W_0" function="internal">
        <lane id=":W_0_0" index="0" speed="3.65" length="4.67" shape="0.00,51.60 -1.20,50.80 -1.60,50.00 -1.20,49.20 0.00,48.40"/>
    </edge>

    <edge id="C_E" from="C" to="E" priority="-1">
        <lane id="C_E_0" index="0" speed="15.00" length="39.60" shape="60.40,45.20 100.00,45.20"/>
        <lane id="C_E_1" index="1" speed="15.00" length="39.60" shape="60.40,48.40 100.00,48.40"/>
    </edge>
    <edge id="C_N" from="C" to="N" priority="-1">
        <lane id="C_N_0" index="0" speed="15.00" length="39.60" shape="54.80,60.40 54.80,100.00"/>
        <lane id="C_N_1" index="1" speed="15.00" length="39.60" shape="51.60,60.40 51.60,100.00"/>
    </edge>
    <edge id="C_S" from="C" to="S" priority="-1">
        <lane id="C_S_0" index="0" speed="15.00" length="39.60" shape="45.20,39.60 45.20,0.00"/>
        <lane id="C_S_1" index="1" speed="15.00" length="39.60" shape="48.40,39.60 48.40,0.00"/>
    </edge>
    <edge id="C_W" from="C" to="W" priority="-1">
        <lane id="C_W_0" index="0" speed="15.00" length="39.60" shape="39.60,54.80 0.00,54.80"/>
        <lane id="C_W_1" index="1" speed="15.00" length="39.60" shape="39.60,51.60 0.00,51.60"/>
    </edge>
    <edge id="E_C" from="E" to="C" priority="-1">
        <lane id="E_C_0" index="0" speed="15.00" length="39.60" shape="100.00,54.80 60.40,54.80"/>
        <lane id="E_C_1" index="1" speed="15.00" length="39.60" shape="100.00,51.60 60.40,51.60"/>
    </edge>
    <edge id="N_C" from="N" to="C" priority="-1">
        <lane id="N_C_0" index="0" speed="15.00" length="39.60" shape="45.20,100.00 45.20,60.40"/>
        <lane id="N_C_1" index="1" speed="15.00" length="39.60" shape="48.40,100.00 48.40,60.40"/>
    </edge>
    <edge id="S_C" from="S" to="C" priority="-1">
        <lane id="S_C_0" index="0" speed="15.00" length="39.60" shape="54.80,0.00 54.80,39.60"/>
        <lane id="S_C_1" index="1" speed="15.00" length="39.60" shape="51.60,0.00 51.60,39.60"/>
    </edge>
    <edge id="W_C" from="W" to="C" priority="-1">
        <lane id="W_C_0" index="0" speed="15.00" length="39.60" shape="0.00,45.20 39.60,45.20"/>
        <lane id="W_C_1" index="1" speed="15.00" length="39.60" shape="0.00,48.40 39.60,48.40"/>
    </edge>

    <tlLogic id="C" type="static" programID="0" offset="0">
        <phase duration="42" state="GGGggrrrrrGGGggrrrrr"/>
        <phase duration="3"  state="yyyyyrrrrryyyyyrrrrr"/>
        <phase duration="42" state="rrrrrGGGggrrrrrGGGgg"/>
        <phase duration="3"  state="rrrrryyyyyrrrrryyyyy"/>
    </tlLogic>

    <junction id="C" type="traffic_light" x="50.00" y="50.00" incLanes="N_C_0 N_C_1 E_C_0 E_C_1 S_C_0 S_C_1 W_C_0 W_C_1" intLanes=":C_0_0 :C_1_0 :C_1_1 :C_20_0 :C_21_0 :C_5_0 :C_6_0 :C_6_1 :C_22_0 :C_23_0 :C_10_0 :C_11_0 :C_11_1 :C_24_0 :C_25_0 :C_15_0 :C_16_0 :C_16_1 :C_26_0 :C_27_0" shape="43.60,60.40 56.40,60.40 56.84,58.18 57.40,57.40 58.18,56.84 59.18,56.51 60.40,56.40 60.40,43.60 58.18,43.16 57.40,42.60 56.84,41.82 56.51,40.82 56.40,39.60 43.60,39.60 43.16,41.82 42.60,42.60 41.82,43.16 40.82,43.49 39.60,43.60 39.60,56.40 41.82,56.84 42.60,57.40 43.16,58.18 43.49,59.18">
        <request index="0"  response="00000000000000000000" foes="00000000000011000000" cont="0"/>
        <request index="1"  response="01000000000100000000" foes="01111110000111000000" cont="0"/>
        <request index="2"  response="01000000000100000000" foes="01111110000111000000" cont="0"/>
        <request index="3"  response="01000001100100000000" foes="01110001101111000000" cont="1"/>
        <request index="4"  response="01000001100000000000" foes="01000001100000000000" cont="1"/>
        <request index="5"  response="00000001100000000000" foes="00000001100000000000" cont="0"/>
        <request index="6"  response="00000011100000001111" foes="11000011100000001111" cont="0"/>
        <request index="7"  response="00000011100000001111" foes="11000011100000001111" cont="0"/>
        <request index="8"  response="00110011100000001110" foes="00110111100000001110" cont="1"/>
        <request index="9"  response="00110000000000001000" foes="00110000000000001000" cont="1"/>
        <request index="10" response="00000000000000000000" foes="00110000000000000000" cont="0"/>
        <request index="11" response="01000000000100000000" foes="01110000000111111000" cont="0"/>
        <request index="12" response="01000000000100000000" foes="01110000000111111000" cont="0"/>
        <request index="13" response="01000000000100000110" foes="11110000000111000110" cont="1"/>
        <request index="14" response="00000000000100000110" foes="00000000000100000110" cont="1"/>
        <request index="15" response="00000000000000000110" foes="00000000000000000110" cont="0"/>
        <request index="16" response="00000011110000001110" foes="00000011111100001110" cont="0"/>
        <request index="17" response="00000011110000001110" foes="00000011111100001110" cont="0"/>
        <request index="18" response="00000011100011001110" foes="00000011100011011110" cont="1"/>
        <request index="19" response="00000010000011000000" foes="00000010000011000000" cont="1"/>
    </junction>
    <junction id="E" type="priority" x="100.00" y="50.00" incLanes="C_E_0 C_E_1" intLanes=":E_0_0" shape="100.00,50.00 100.00,43.60 100.00,50.00">
        <request index="0" response="0" foes="0" cont="0"/>
    </junction>
    <junction id="N" type="priority" x="50.00" y="100.00" incLanes="C_N_0 C_N_1" intLanes=":N_0_0" shape="50.00,100.00 56.40,100.00 50.00,100.00">
        <request index="0" response="0" foes="0" cont="0"/>
    </junction>
    <junction id="S" type="priority" x="50.00" y="0.00" incLanes="C_S_0 C_S_1" intLanes=":S_0_0" shape="50.00,0.00 43.60,0.00 50.00,0.00">
        <request index="0" response="0" foes="0" cont="0"/>
    </junction>
    <junction id="W" type="priority" x="0.00" y="50.00" incLanes="C_W_0 C_W_1" intLanes=":W_0_0" shape="0.00,50.00 0.00,56.40 0.00,50.00">
        <request index="0" response="0" foes="0" cont="0"/>
    </junction>

    <junction id=":C_20_0" type="internal" x="49.11" y="55.44" incLanes=":C_3_0 S_C_0 S_C_1" intLanes=":C_6_0 :C_6_1 :C_8_0 :C_9_0 :C_10_0 :C_11_0 :C_11_1 :C_16_0 :C_16_1 :C_18_0"/>
    <junction id=":C_21_0" type="internal" x="49.20" y="59.20" incLanes=":C_4_0 E_C_0 S_C_0 S_C_1 W_C_1" intLanes=":C_5_0 :C_11_0 :C_11_1 :C_18_0"/>
    <junction id=":C_22_0" type="internal" x="55.44" y="50.89" incLanes=":C_8_0 W_C_0 W_C_1" intLanes=":C_1_0 :C_1_1 :C_3_0 :C_11_0 :C_11_1 :C_13_0 :C_14_0 :C_15_0 :C_16_0 :C_16_1"/>
    <junction id=":C_23_0" type="internal" x="59.20" y="50.80" incLanes=":C_9_0 N_C_1 S_C_0 W_C_0 W_C_1" intLanes=":C_3_0 :C_10_0 :C_16_0 :C_16_1"/>
    <junction id=":C_24_0" type="internal" x="50.89" y="44.56" incLanes=":C_13_0 N_C_0 N_C_1" intLanes=":C_0_0 :C_1_0 :C_1_1 :C_6_0 :C_6_1 :C_8_0 :C_16_0 :C_16_1 :C_18_0 :C_19_0"/>
    <junction id=":C_25_0" type="internal" x="50.80" y="40.80" incLanes=":C_14_0 E_C_1 N_C_0 N_C_1 W_C_0" intLanes=":C_1_0 :C_1_1 :C_8_0 :C_15_0"/>
    <junction id=":C_26_0" type="internal" x="44.56" y="49.11" incLanes=":C_18_0 E_C_0 E_C_1" intLanes=":C_1_0 :C_1_1 :C_3_0 :C_4_0 :C_5_0 :C_6_0 :C_6_1 :C_11_0 :C_11_1 :C_13_0"/>
    <junction id=":C_27_0" type="internal" x="40.80" y="49.20" incLanes=":C_19_0 E_C_0 E_C_1 N_C_0 S_C_1" intLanes=":C_0_0 :C_6_0 :C_6_1 :C_13_0"/>

    <connection from="C_E" to="E_C" fromLane="1" toLane="1" via=":E_0_0" dir="t" state="M"/>
    <connection from="C_N" to="N_C" fromLane="1" toLane="1" via=":N_0_0" dir="t" state="M"/>
    <connection from="C_S" to="S_C" fromLane="1" toLane="1" via=":S_0_0" dir="t" state="M"/>
    <connection from="C_W" to="W_C" fromLane="1" toLane="1" via=":W_0_0" dir="t" state="M"/>
    <connection from="E_C" to="C_N" fromLane="0" toLane="0" via=":C_5_0" tl="C" linkIndex="5" dir="r" state="o"/>
    <connection from="E_C" to="C_W" fromLane="0" toLane="0" via=":C_6_0" tl="C" linkIndex="6" dir="s" state="o"/>
    <connection from="E_C" to="C_W" fromLane="1" toLane="1" via=":C_6_1" tl="C" linkIndex="7" dir="s" state="o"/>
    <connection from="E_C" to="C_S" fromLane="1" toLane="1" via=":C_8_0" tl="C" linkIndex="8" dir="l" state="o"/>
    <connection from="E_C" to="C_E" fromLane="1" toLane="1" via=":C_9_0" tl="C" linkIndex="9" dir="t" state="o"/>
    <connection from="N_C" to="C_W" fromLane="0" toLane="0" via=":C_0_0" tl="C" linkIndex="0" dir="r" state="O"/>
    <connection from="N_C" to="C_S" fromLane="0" toLane="0" via=":C_1_0" tl="C" linkIndex="1" dir="s" state="O"/>
    <connection from="N_C" to="C_S" fromLane="1" toLane="1" via=":C_1_1" tl="C" linkIndex="2" dir="s" state="O"/>
    <connection from="N_C" to="C_E" fromLane="1" toLane="1" via=":C_3_0" tl="C" linkIndex="3" dir="l" state="o"/>
    <connection from="N_C" to="C_N" fromLane="1" toLane="1" via=":C_4_0" tl="C" linkIndex="4" dir="t" state="o"/>
    <connection from="S_C" to="C_E" fromLane="0" toLane="0" via=":C_10_0" tl="C" linkIndex="10" dir="r" state="O"/>
    <connection from="S_C" to="C_N" fromLane="0" toLane="0" via=":C_11_0" tl="C" linkIndex="11" dir="s" state="O"/>
    <connection from="S_C" to="C_N" fromLane="1" toLane="1" via=":C_11_1" tl="C" linkIndex="12" dir="s" state="O"/>
    <connection from="S_C" to="C_W" fromLane="1" toLane="1" via=":C_13_0" tl="C" linkIndex="13" dir="l" state="o"/>
    <connection from="S_C" to="C_S" fromLane="1" toLane="1" via=":C_14_0" tl="C" linkIndex="14" dir="t" state="o"/>
    <connection from="W_C" to="C_S" fromLane="0" toLane="0" via=":C_15_0" tl="C" linkIndex="15" dir="r" state="o"/>
    <connection from="W_C" to="C_E" fromLane="0" toLane="0" via=":C_16_0" tl="C" linkIndex="16" dir="s" state="o"/>
    <connection from="W_C" to="C_E" fromLane="1" toLane="1" via=":C_16_1" tl="C" linkIndex="17" dir="s" state="o"/>
    <connection from="W_C" to="C_N" fromLane="1" toLane="1" via=":C_18_0" tl="C" linkIndex="18" dir="l" state="o"/>
    <connection from="W_C" to="C_W" fromLane="1" toLane="1" via=":C_19_0" tl="C" linkIndex="19" dir="t" state="o"/>

    <connection from=":C_0" to="C_W" fromLane="0" toLane="0" dir="r" state="M"/>
    <connection from=":C_1" to="C_S" fromLane="0" toLane="0" dir="s" state="M"/>
    <connection from=":C_1" to="C_S" fromLane="1" toLane="1" dir="s" state="M"/>
    <connection from=":C_3" to="C_E" fromLane="0" toLane="1" via=":C_20_0" dir="l" state="m"/>
    <connection from=":C_20" to="C_E" fromLane="0" toLane="1" dir="l" state="M"/>
    <connection from=":C_4" to="C_N" fromLane="0" toLane="1" via=":C_21_0" dir="t" state="m"/>
    <connection from=":C_21" to="C_N" fromLane="0" toLane="1" dir="t" state="M"/>
    <connection from=":C_5" to="C_N" fromLane="0" toLane="0" dir="r" state="M"/>
    <connection from=":C_6" to="C_W" fromLane="0" toLane="0" dir="s" state="M"/>
    <connection from=":C_6" to="C_W" fromLane="1" toLane="1" dir="s" state="M"/>
    <connection from=":C_8" to="C_S" fromLane="0" toLane="1" via=":C_22_0" dir="l" state="m"/>
    <connection from=":C_22" to="C_S" fromLane="0" toLane="1" dir="l" state="M"/>
    <connection from=":C_9" to="C_E" fromLane="0" toLane="1" via=":C_23_0" dir="t" state="m"/>
    <connection from=":C_23" to="C_E" fromLane="0" toLane="1" dir="t" state="M"/>
    <connection from=":C_10" to="C_E" fromLane="0" toLane="0" dir="r" state="M"/>
    <connection from=":C_11" to="C_N" fromLane="0" toLane="0" dir="s" state="M"/>
    <connection from=":C_11" to="C_N" fromLane="1" toLane="1" dir="s" state="M"/>
    <connection from=":C_13" to="C_W" fromLane="0" toLane="1" via=":C_24_0" dir="l" state="m"/>
    <connection from=":C_24" to="C_W" fromLane="0" toLane="1" dir="l" state="M"/>
    <connection from=":C_14" to="C_S" fromLane="0" toLane="1" via=":C_25_0" dir="t" state="m"/>
    <connection from=":C_25" to="C_S" fromLane="0" toLane="1" dir="t" state="M"/>
    <connection from=":C_15" to="C_S" fromLane="0" toLane="0" dir="r" state="M"/>
    <connection from=":C_16" to="C_E" fromLane="0" toLane="0" dir="s" state="M"/>
    <connection from=":C_16" to="C_E" fromLane="1" toLane="1" dir="s" state="M"/>
    <connection from=":C_18" to="C_N" fromLane="0" toLane="1" via=":C_26_0" dir="l" state="m"/>
    <connection from=":C_26" to="C_N" fromLane="0" toLane="1" dir="l" state="M"/>
    <connection from=":C_19" to="C_W" fromLane="0" toLane="1" via=":C_27_0" dir="t" state="m"/>
    <connection from=":C_27" to="C_W" fromLane="0" toLane="1" dir="t" state="M"/>
    <connection from=":E_0" to="E_C" fromLane="0" toLane="1" dir="t" state="M"/>
    <connection from=":N_0" to="N_C" fromLane="0" toLane="1" dir="t" state="M"/>
    <connection from=":S_0" to="S_C" fromLane="0" toLane="1" dir="t" state="M"/>
    <connection from=":W_0" to="W_C" fromLane="0" toLane="1" dir="t" state="M"/>

</net>
