<?xml version="1.0" encoding="UTF-8"?>

<!-- generated on 2025-09-28 14:11:18 by Eclipse SUMO netconvert Version 1.24.0
<netconvertConfiguration xmlns:xsi="http://www.w3.org/2001/XMLSchema-instance" xsi:noNamespaceSchemaLocation="http://sumo.dlr.de/xsd/netconvertConfiguration.xsd">

    <input>
        <sumo-net-file value="junction.net.xml"/>
    </input>

    <processing>
        <geometry.min-radius.fix.railways value="false"/>
        <geometry.avoid-overlap value="false"/>
        <geometry.max-grade.fix value="false"/>
        <offset.disable-normalization value="true"/>
        <lefthand value="0"/>
    </processing>

    <junctions>
        <no-turnarounds value="true"/>
        <junctions.corner-detail value="5"/>
        <junctions.limit-turn-speed value="5.50"/>
        <rectangular-lane-cut value="0"/>
    </junctions>

    <pedestrian>
        <walkingareas value="0"/>
    </pedestrian>

    <report>
        <verbose value="true"/>
    </report>

</netconvertConfiguration>
-->

<net version="1.20" junctionCornerDetail="5" limitTurnSpeed="5.50" avoidOverlap="0" xmlns:xsi="http://www.w3.org/2001/XMLSchema-instance" xsi:noNamespaceSchemaLocation="http://sumo.dlr.de/xsd/net_file.xsd">

    <location netOffset="50.00,50.00" convBoundary="0.00,0.00,100.00,100.00" origBoundary="-50.00,-50.00,50.00,50.00" projParameter="!"/>

    <edge id=":C_0" function="internal">
        <lane id=":C_0_0" index="0" speed="6.51" length="9.03" shape="42.00,63.60 41.65,61.15 40.60,59.40 38.85,58.35 36.40,58.00"/>
    </edge>
    <edge id=":C_1" function="internal">
        <lane id=":C_1_0" index="0" speed="13.90" length="27.20" shape="42.00,63.60 42.00,36.40"/>
        <lane id=":C_1_1" index="1" speed="13.90" length="27.20" shape="45.20,63.60 45.20,36.40"/>
        <lane id=":C_1_2" index="2" speed="13.90" length="27.20" shape="48.40,63.60 48.40,36.40"/>
    </edge>
    <edge id=":C_4" function="internal">
        <lane id=":C_4_0" index="0" speed="10.36" length="5.01" shape="48.40,63.60 49.11,58.64"/>
    </edge>
    <edge id=":C_5" function="internal">
        <lane id=":C_5_0" index="0" speed="3.65" length="1.44" shape="48.40,63.60 49.20,62.40"/>
    </edge>
    <edge id=":C_24" function="internal">
        <lane id=":C_24_0" index="0" speed="10.36" length="19.50" shape="49.11,58.64 49.35,56.95 52.20,52.20 56.95,49.35 63.60,48.40"/>
    </edge>
    <edge id=":C_25" function="internal">
        <lane id=":C_25_0" index="0" speed="3.65" length="3.23" shape="49.20,62.40 50.00,62.00 50.80,62.40 51.60,63.60"/>
    </edge>
    <edge id=":C_6" function="internal">
        <lane id=":C_6_0" index="0" speed="6.51" length="9.03" shape="63.60,58.00 61.15,58.35 59.40,59.40 58.35,61.15 58.00,63.60"/>
    </edge>
    <edge id=":C_7" function="internal">
        <lane id=":C_7_0" index="0" speed="13.90" length="27.20" shape="63.60,58.00 36.40,58.00"/>
        <lane id=":C_7_1" index="1" speed="13.90" length="27.20" shape="63.60,54.80 36.40,54.80"/>
        <lane id=":C_7_2" index="2" speed="13.90" length="27.20" shape="63.60,51.60 36.40,51.60"/>
    </edge>
    <edge id=":C_10" function="internal">
        <lane id=":C_10_0" index="0" speed="10.36" length="5.01" shape="63.60,51.60 58.64,50.89"/>
    </edge>
    <edge id=":C_11" function="internal">
        <lane id=":C_11_0" index="0" speed="3.65" length="1.44" shape="63.60,51.60 62.40,50.80"/>
    </edge>
    <edge id=":C_26" function="internal">
        <lane id=":C_26_0" index="0" speed="10.36" length="19.50" shape="58.64,50.89 56.95,50.65 52.20,47.80 49.35,43.05 48.40,36.40"/>
    </edge>
    <edge id=":C_27" function="internal">
        <lane id=":C_27_0" index="0" speed="3.65" length="3.23" shape="62.40,50.80 62.00,50.00 62.40,49.20 63.60,48.40"/>
    </edge>
    <edge id=":C_12" function="internal">
        <lane id=":C_12_0" index="0" speed="6.51" length="9.03" shape="58.00,36.40 58.35,38.85 59.40,40.60 61.15,41.65 63.60,42.00"/>
    </edge>
    <edge id=":C_13" function="internal">
        <lane id=":C_13_0" index="0" speed="13.90" length="27.20" shape="58.00,36.40 58.00,63.60"/>
        <lane id=":C_13_1" index="1" speed="13.90" length="27.20" shape="54.80,36.40 54.80,63.60"/>
        <lane id=":C_13_2" index="2" speed="13.90" length="27.20" shape="51.60,36.40 51.60,63.60"/>
    </edge>
    <edge id=":C_16" function="internal">
        <lane id=":C_16_0" index="0" speed="10.36" length="5.01" shape="51.60,36.40 50.89,41.36"/>
    </edge>
    <edge id=":C_17" function="internal">
        <lane id=":C_17_0" index="0" speed="3.65" length="1.44" shape="51.60,36.40 50.80,37.60"/>
    </edge>
    <edge id=":C_28" function="internal">
        <lane id=":C_28_0" index="0" speed="10.36" length="19.50" shape="50.89,41.36 50.65,43.05 47.80,47.80 43.05,50.65 36.40,51.60"/>
    </edge>
    <edge id=":C_29" function="internal">
        <lane id=":C_29_0" index="0" speed="3.65" length="3.23" shape="50.80,37.60 50.00,38.00 49.20,37.60 48.40,36.40"/>
    </edge>
    <edge id=":C_18" function="internal">
        <lane id=":C_18_0" index="0" speed="6.51" length="9.03" shape="36.40,42.00 38.85,41.65 40.60,40.60 41.65,38.85 42.00,36.40"/>
    </edge>
    <edge id=":C_19" function="internal">
        <lane id=":C_19_0" index="0" speed="13.90" length="27.20" shape="36.40,42.00 63.60,42.00"/>
        <lane id=":C_19_1" index="1" speed="13.90" length="27.20" shape="36.40,45.20 63.60,45.20"/>
        <lane id=":C_19_2" index="2" speed="13.90" length="27.20" shape="36.40,48.40 63.60,48.40"/>
    </edge>
    <edge id=":C_22" function="internal">
        <lane id=":C_22_0" index="0" speed="10.36" length="5.01" shape="36.40,48.40 41.36,49.11"/>
    </edge>
    <edge id=":C_23" function="internal">
        <lane id=":C_23_0" index="0" speed="3.65" length="1.44" shape="36.40,48.40 37.60,49.20"/>
    </edge>
    <edge id=":C_30" function="internal">
        <lane id=":C_30_0" index="0" speed="10.36" length="19.50" shape="41.36,49.11 43.05,49.35 47.80,52.20 50.65,56.95 51.60,63.60"/>
    </edge>
    <edge id=":C_31" function="internal">
        <lane id=":C_31_0" index="0" speed="3.65" length="3.23" shape="37.60,49.20 38.00,50.00 37.60,50.80 36.40,51.60"/>
    </edge>
    <edge id=":E_0" function="internal">
        <lane id=":E_0_0" index="0" speed="3.65" length="4.67" shape="100.00,48.40 101.20,49.20 101.60,50.00 101.20,50.80 100.00,51.60"/>
    </edge>
    <edge id=":N_0" function="internal">
        <lane id=":N_0_0" index="0" speed="3.65" length="4.67" shape="51.60,100.00 50.80,101.20 50.00,101.60 49.20,101.20 48.40,100.00"/>
    </edge>
    <edge id=":S_0" function="internal">
        <lane id=":S_0_0" index="0" speed="3.65" length="4.67" shape="48.40,0.00 49.20,-1.20 50.00,-1.60 50.80,-1.20 51.60,0.00"/>
    </edge>
    <edge id=":W_0" function="internal">
        <lane id=":W_0_0" index="0" speed="3.65" length="4.67" shape="0.00,51.60 -1.20,50.80 -1.60,50.00 -1.20,49.20 0.00,48.40"/>
    </edge>

    <edge id="C_E" from="C" to="E" priority="-1">
        <lane id="C_E_0" index="0" speed="13.90" length="36.40" shape="63.60,42.00 100.00,42.00"/>
        <lane id="C_E_1" index="1" speed="13.90" length="36.40" shape="63.60,45.20 100.00,45.20"/>
        <lane id="C_E_2" index="2" speed="13.90" length="36.40" shape="63.60,48.40 100.00,48.40"/>
    </edge>
    <edge id="C_N" from="C" to="N" priority="-1">
        <lane id="C_N_0" index="0" speed="13.90" length="36.40" shape="58.00,63.60 58.00,100.00"/>
        <lane id="C_N_1" index="1" speed="13.90" length="36.40" shape="54.80,63.60 54.80,100.00"/>
        <lane id="C_N_2" index="2" speed="13.90" length="36.40" shape="51.60,63.60 51.60,100.00"/>
    </edge>
    <edge id="C_S" from="C" to="S" priority="-1">
        <lane id="C_S_0" index="0" speed="13.90" length="36.40" shape="42.00,36.40 42.00,0.00"/>
        <lane id="C_S_1" index="1" speed="13.90" length="36.40" shape="45.20,36.40 45.20,0.00"/>
        <lane id="C_S_2" index="2" speed="13.90" length="36.40" shape="48.40,36.40 48.40,0.00"/>
    </edge>
    <edge id="C_W" from="C" to="W" priority="-1">
        <lane id="C_W_0" index="0" speed="13.90" length="36.40" shape="36.40,58.00 0.00,58.00"/>
        <lane id="C_W_1" index="1" speed="13.90" length="36.40" shape="36.40,54.80 0.00,54.80"/>
        <lane id="C_W_2" index="2" speed="13.90" length="36.40" shape="36.40,51.60 0.00,51.60"/>
    </edge>
    <edge id="E_C" from="E" to="C" priority="-1">
        <lane id="E_C_0" index="0" speed="13.90" length="36.40" shape="100.00,58.00 63.60,58.00"/>
        <lane id="E_C_1" index="1" speed="13.90" length="36.40" shape="100.00,54.80 63.60,54.80"/>
        <lane id="E_C_2" index="2" speed="13.90" length="36.40" shape="100.00,51.60 63.60,51.60"/>
    </edge>
    <edge id="N_C" from="N" to="C" priority="-1">
        <lane id="N_C_0" index="0" speed="13.90" length="36.40" shape="42.00,100.00 42.00,63.60"/>
        <lane id="N_C_1" index="1" speed="13.90" length="36.40" shape="45.20,100.00 45.20,63.60"/>
        <lane id="N_C_2" index="2" speed="13.90" length="36.40" shape="48.40,100.00 48.40,63.60"/>
    </edge>
    <edge id="S_C" from="S" to="C" priority="-1">
        <lane id="S_C_0" index="0" speed="13.90" length="36.40" shape="58.00,0.00 58.00,36.40"/>
        <lane id="S_C_1" index="1" speed="13.90" length="36.40" shape="54.80,0.00 54.80,36.40"/>
        <lane id="S_C_2" index="2" speed="13.90" length="36.40" shape="51.60,0.00 51.60,36.40"/>
    </edge>
    <edge id="W_C" from="W" to="C" priority="-1">
        <lane id="W_C_0" index="0" speed="13.90" length="36.40" shape="0.00,42.00 36.40,42.00"/>
        <lane id="W_C_1" index="1" speed="13.90" length="36.40" shape="0.00,45.20 36.40,45.20"/>
        <lane id="W_C_2" index="2" speed="13.90" length="36.40" shape="0.00,48.40 36.40,48.40"/>
    </edge>

    <tlLogic id="C" type="static" programID="0" offset="0">
        <phase duration="42" state="GGGGggrrrrrrGGGGggrrrrrr"/>
        <phase duration="3"  state="yyyyyyrrrrrryyyyyyrrrrrr"/>
        <phase duration="42" state="rrrrrrGGGGggrrrrrrGGGGgg"/>
        <phase duration="3"  state="rrrrrryyyyyyrrrrrryyyyyy"/>
    </tlLogic>

    <junction id="C" type="traffic_light" x="50.00" y="50.00" incLanes="N_C_0 N_C_1 N_C_2 E_C_0 E_C_1 E_C_2 S_C_0 S_C_1 S_C_2 W_C_0 W_C_1 W_C_2" intLanes=":C_0_0 :C_1_0 :C_1_1 :C_1_2 :C_24_0 :C_25_0 :C_6_0 :C_7_0 :C_7_1 :C_7_2 :C_26_0 :C_27_0 :C_12_0 :C_13_0 :C_13_1 :C_13_2 :C_28_0 :C_29_0 :C_18_0 :C_19_0 :C_19_1 :C_19_2 :C_30_0 :C_31_0" shape="40.40,63.60 59.60,63.60 60.04,61.38 60.60,60.60 61.38,60.04 62.38,59.71 63.60,59.60 63.60,40.40 61.38,39.96 60.60,39.40 60.04,38.62 59.71,37.62 59.60,36.40 40.40,36.40 39.96,38.62 39.40,39.40 38.62,39.96 37.62,40.29 36.40,40.40 36.40,59.60 38.62,60.04 39.40,60.60 39.96,61.38 40.29,62.38">
        <request index="0"  response="000000000000000000000000" foes="000000000000001110000000" cont="0"/>
        <request index="1"  response="010000000000010000000000" foes="011111110000011110000000" cont="0"/>
        <request index="2"  response="010000000000010000000000" foes="011111110000011110000000" cont="0"/>
        <request index="3"  response="010000000000010000000000" foes="011111110000011110000000" cont="0"/>
        <request index="4"  response="010000001110010000000000" foes="011110001110111110000000" cont="1"/>
        <request index="5"  response="010000001110000000000000" foes="010000001110000000000000" cont="1"/>
        <request index="6"  response="000000001110000000000000" foes="000000001110000000000000" cont="0"/>
        <request index="7"  response="000000011110000000011111" foes="110000011110000000011111" cont="0"/>
        <request index="8"  response="000000011110000000011111" foes="110000011110000000011111" cont="0"/>
        <request index="9"  response="000000011110000000011111" foes="110000011110000000011111" cont="0"/>
        <request index="10" response="001110011110000000011110" foes="001110111110000000011110" cont="1"/>
        <request index="11" response="001110000000000000010000" foes="001110000000000000010000" cont="1"/>
        <request index="12" response="000000000000000000000000" foes="001110000000000000000000" cont="0"/>
        <request index="13" response="010000000000010000000000" foes="011110000000011111110000" cont="0"/>
        <request index="14" response="010000000000010000000000" foes="011110000000011111110000" cont="0"/>
        <request index="15" response="010000000000010000000000" foes="011110000000011111110000" cont="0"/>
        <request index="16" response="010000000000010000001110" foes="111110000000011110001110" cont="1"/>
        <request index="17" response="000000000000010000001110" foes="000000000000010000001110" cont="1"/>
        <request index="18" response="000000000000000000001110" foes="000000000000000000001110" cont="0"/>
        <request index="19" response="000000011111000000011110" foes="000000011111110000011110" cont="0"/>
        <request index="20" response="000000011111000000011110" foes="000000011111110000011110" cont="0"/>
        <request index="21" response="000000011111000000011110" foes="000000011111110000011110" cont="0"/>
        <request index="22" response="000000011110001110011110" foes="000000011110001110111110" cont="1"/>
        <request index="23" response="000000010000001110000000" foes="000000010000001110000000" cont="1"/>
    </junction>
    <junction id="E" type="priority" x="100.00" y="50.00" incLanes="C_E_0 C_E_1 C_E_2" intLanes=":E_0_0" shape="100.00,50.00 100.00,40.40 100.00,50.00">
        <request index="0" response="0" foes="0" cont="0"/>
    </junction>
    <junction id="N" type="priority" x="50.00" y="100.00" incLanes="C_N_0 C_N_1 C_N_2" intLanes=":N_0_0" shape="50.00,100.00 59.60,100.00 50.00,100.00">
        <request index="0" response="0" foes="0" cont="0"/>
    </junction>
    <junction id="S" type="priority" x="50.00" y="0.00" incLanes="C_S_0 C_S_1 C_S_2" intLanes=":S_0_0" shape="50.00,0.00 40.40,0.00 50.00,0.00">
        <request index="0" response="0" foes="0" cont="0"/>
    </junction>
    <junction id="W" type="priority" x="0.00" y="50.00" incLanes="C_W_0 C_W_1 C_W_2" intLanes=":W_0_0" shape="0.00,50.00 0.00,59.60 0.00,50.00">
        <request index="0" response="0" foes="0" cont="0"/>
    </junction>

    <junction id=":C_24_0" type="internal" x="49.11" y="58.64" incLanes=":C_4_0 S_C_0 S_C_1 S_C_2" intLanes=":C_7_0 :C_7_1 :C_7_2 :C_10_0 :C_11_0 :C_12_0 :C_13_0 :C_13_1 :C_13_2 :C_19_0 :C_19_1 :C_19_2 :C_22_0"/>
    <junction id=":C_25_0" type="internal" x="49.20" y="62.40" incLanes=":C_5_0 E_C_0 S_C_0 S_C_1 S_C_2 W_C_2" intLanes=":C_6_0 :C_13_0 :C_13_1 :C_13_2 :C_22_0"/>
    <junction id=":C_26_0" type="internal" x="58.64" y="50.89" incLanes=":C_10_0 W_C_0 W_C_1 W_C_2" intLanes=":C_1_0 :C_1_1 :C_1_2 :C_4_0 :C_13_0 :C_13_1 :C_13_2 :C_16_0 :C_17_0 :C_18_0 :C_19_0 :C_19_1 :C_19_2"/>
    <junction id=":C_27_0" type="internal" x="62.40" y="50.80" incLanes=":C_11_0 N_C_2 S_C_0 W_C_0 W_C_1 W_C_2" intLanes=":C_4_0 :C_12_0 :C_19_0 :C_19_1 :C_19_2"/>
    <junction id=":C_28_0" type="internal" x="50.89" y="41.36" incLanes=":C_16_0 N_C_0 N_C_1 N_C_2" intLanes=":C_0_0 :C_1_0 :C_1_1 :C_1_2 :C_7_0 :C_7_1 :C_7_2 :C_10_0 :C_19_0 :C_19_1 :C_19_2 :C_22_0 :C_23_0"/>
    <junction id=":C_29_0" type="internal" x="50.80" y="37.60" incLanes=":C_17_0 E_C_2 N_C_0 N_C_1 N_C_2 W_C_0" intLanes=":C_1_0 :C_1_1 :C_1_2 :C_10_0 :C_18_0"/>
    <junction id=":C_30_0" type="internal" x="41.36" y="49.11" incLanes=":C_22_0 E_C_0 E_C_1 E_C_2" intLanes=":C_1_0 :C_1_1 :C_1_2 :C_4_0 :C_5_0 :C_6_0 :C_7_0 :C_7_1 :C_7_2 :C_13_0 :C_13_1 :C_13_2 :C_16_0"/>
    <junction id=":C_31_0" type="internal" x="37.60" y="49.20" incLanes=":C_23_0 E_C_0 E_C_1 E_C_2 N_C_0 S_C_2" intLanes=":C_0_0 :C_7_0 :C_7_1 :C_7_2 :C_16_0"/>

    <connection from="C_E" to="E_C" fromLane="2" toLane="2" via=":E_0_0" dir="t" state="M"/>
    <connection from="C_N" to="N_C" fromLane="2" toLane="2" via=":N_0_0" dir="t" state="M"/>
    <connection from="C_S" to="S_C" fromLane="2" toLane="2" via=":S_0_0" dir="t" state="M"/>
    <connection from="C_W" to="W_C" fromLane="2" toLane="2" via=":W_0_0" dir="t" state="M"/>
    <connection from="E_C" to="C_N" fromLane="0" toLane="0" via=":C_6_0" tl="C" linkIndex="6" dir="r" state="o"/>
    <connection from="E_C" to="C_W" fromLane="0" toLane="0" via=":C_7_0" tl="C" linkIndex="7" dir="s" state="o"/>
    <connection from="E_C" to="C_W" fromLane="1" toLane="1" via=":C_7_1" tl="C" linkIndex="8" dir="s" state="o"/>
    <connection from="E_C" to="C_W" fromLane="2" toLane="2" via=":C_7_2" tl="C" linkIndex="9" dir="s" state="o"/>
    <connection from="E_C" to="C_S" fromLane="2" toLane="2" via=":C_10_0" tl="C" linkIndex="10" dir="l" state="o"/>
    <connection from="E_C" to="C_E" fromLane="2" toLane="2" via=":C_11_0" tl="C" linkIndex="11" dir="t" state="o"/>
    <connection from="N_C" to="C_W" fromLane="0" toLane="0" via=":C_0_0" tl="C" linkIndex="0" dir="r" state="O"/>
    <connection from="N_C" to="C_S" fromLane="0" toLane="0" via=":C_1_0" tl="C" linkIndex="1" dir="s" state="O"/>
    <connection from="N_C" to="C_S" fromLane="1" toLane="1" via=":C_1_1" tl="C" linkIndex="2" dir="s" state="O"/>
    <connection from="N_C" to="C_S" fromLane="2" toLane="2" via=":C_1_2" tl="C" linkIndex="3" dir="s" state="O"/>
    <connection from="N_C" to="C_E" fromLane="2" toLane="2" via=":C_4_0" tl="C" linkIndex="4" dir="l" state="o"/>
    <connection from="N_C" to="C_N" fromLane="2" toLane="2" via=":C_5_0" tl="C" linkIndex="5" dir="t" state="o"/>
    <connection from="S_C" to="C_E" fromLane="0" toLane="0" via=":C_12_0" tl="C" linkIndex="12" dir="r" state="O"/>
    <connection from="S_C" to="C_N" fromLane="0" toLane="0" via=":C_13_0" tl="C" linkIndex="13" dir="s" state="O"/>
    <connection from="S_C" to="C_N" fromLane="1" toLane="1" via=":C_13_1" tl="C" linkIndex="14" dir="s" state="O"/>
    <connection from="S_C" to="C_N" fromLane="2" toLane="2" via=":C_13_2" tl="C" linkIndex="15" dir="s" state="O"/>
    <connection from="S_C" to="C_W" fromLane="2" toLane="2" via=":C_16_0" tl="C" linkIndex="16" dir="l" state="o"/>
    <connection from="S_C" to="C_S" fromLane="2" toLane="2" via=":C_17_0" tl="C" linkIndex="17" dir="t" state="o"/>
    <connection from="W_C" to="C_S" fromLane="0" toLane="0" via=":C_18_0" tl="C" linkIndex="18" dir="r" state="o"/>
    <connection from="W_C" to="C_E" fromLane="0" toLane="0" via=":C_19_0" tl="C" linkIndex="19" dir="s" state="o"/>
    <connection from="W_C" to="C_E" fromLane="1" toLane="1" via=":C_19_1" tl="C" linkIndex="20" dir="s" state="o"/>
    <connection from="W_C" to="C_E" fromLane="2" toLane="2" via=":C_19_2" tl="C" linkIndex="21" dir="s" state="o"/>
    <connection from="W_C" to="C_N" fromLane="2" toLane="2" via=":C_22_0" tl="C" linkIndex="22" dir="l" state="o"/>
    <connection from="W_C" to="C_W" fromLane="2" toLane="2" via=":C_23_0" tl="C" linkIndex="23" dir="t" state="o"/>

    <connection from=":C_0" to="C_W" fromLane="0" toLane="0" dir="r" state="M"/>
    <connection from=":C_1" to="C_S" fromLane="0" toLane="0" dir="s" state="M"/>
    <connection from=":C_1" to="C_S" fromLane="1" toLane="1" dir="s" state="M"/>
    <connection from=":C_1" to="C_S" fromLane="2" toLane="2" dir="s" state="M"/>
    <connection from=":C_4" to="C_E" fromLane="0" toLane="2" via=":C_24_0" dir="l" state="m"/>
    <connection from=":C_24" to="C_E" fromLane="0" toLane="2" dir="l" state="M"/>
    <connection from=":C_5" to="C_N" fromLane="0" toLane="2" via=":C_25_0" dir="t" state="m"/>
    <connection from=":C_25" to="C_N" fromLane="0" toLane="2" dir="t" state="M"/>
    <connection from=":C_6" to="C_N" fromLane="0" toLane="0" dir="r" state="M"/>
    <connection from=":C_7" to="C_W" fromLane="0" toLane="0" dir="s" state="M"/>
    <connection from=":C_7" to="C_W" fromLane="1" toLane="1" dir="s" state="M"/>
    <connection from=":C_7" to="C_W" fromLane="2" toLane="2" dir="s" state="M"/>
    <connection from=":C_10" to="C_S" fromLane="0" toLane="2" via=":C_26_0" dir="l" state="m"/>
    <connection from=":C_26" to="C_S" fromLane="0" toLane="2" dir="l" state="M"/>
    <connection from=":C_11" to="C_E" fromLane="0" toLane="2" via=":C_27_0" dir="t" state="m"/>
    <connection from=":C_27" to="C_E" fromLane="0" toLane="2" dir="t" state="M"/>
    <connection from=":C_12" to="C_E" fromLane="0" toLane="0" dir="r" state="M"/>
    <connection from=":C_13" to="C_N" fromLane="0" toLane="0" dir="s" state="M"/>
    <connection from=":C_13" to="C_N" fromLane="1" toLane="1" dir="s" state="M"/>
    <connection from=":C_13" to="C_N" fromLane="2" toLane="2" dir="s" state="M"/>
    <connection from=":C_16" to="C_W" fromLane="0" toLane="2" via=":C_28_0" dir="l" state="m"/>
    <connection from=":C_28" to="C_W" fromLane="0" toLane="2" dir="l" state="M"/>
    <connection from=":C_17" to="C_S" fromLane="0" toLane="2" via=":C_29_0" dir="t" state="m"/>
    <connection from=":C_29" to="C_S" fromLane="0" toLane="2" dir="t" state="M"/>
    <connection from=":C_18" to="C_S" fromLane="0" toLane="0" dir="r" state="M"/>
    <connection from=":C_19" to="C_E" fromLane="0" toLane="0" dir="s" state="M"/>
    <connection from=":C_19" to="C_E" fromLane="1" toLane="1" dir="s" state="M"/>
    <connection from=":C_19" to="C_E" fromLane="2" toLane="2" dir="s" state="M"/>
    <connection from=":C_22" to="C_N" fromLane="0" toLane="2" via=":C_30_0" dir="l" state="m"/>
    <connection from=":C_30" to="C_N" fromLane="0" toLane="2" dir="l" state="M"/>
    <connection from=":C_23" to="C_W" fromLane="0" toLane="2" via=":C_31_0" dir="t" state="m"/>
    <connection from=":C_31" to="C_W" fromLane="0" toLane="2" dir="t" state="M"/>
    <connection from=":E_0" to="E_C" fromLane="0" toLane="2" dir="t" state="M"/>
    <connection from=":N_0" to="N_C" fromLane="0" toLane="2" dir="t" state="M"/>
    <connection from=":S_0" to="S_C" fromLane="0" toLane="2" dir="t" state="M"/>
    <connection from=":W_0" to="W_C" fromLane="0" toLane="2" dir="t" state="M"/>

</net>
