<nodes>
    <node id="N" x="0.0" y="50.0" type="priority"/>
    <node id="S" x="0.0" y="-50.0" type="priority"/>
    <node id="E" x="50.0" y="0.0" type="priority"/>
    <node id="W" x="-50.0" y="0.0" type="priority"/>
    <node id="C" x="0.0" y="0.0" type="traffic_light"/>
</nodes>

