<?xml version="1.0" encoding="UTF-8"?>
<routes>
    <!-- Vehicle Types -->
    <vType id="car" accel="2.6" decel="4.5" sigma="0.5" length="5" maxSpeed="14" color="1,0,0"/>
    <vType id="truck" accel="1.2" decel="4.0" sigma="0.5" length="8" maxSpeed="10" color="0,1,0"/>
    <vType id="bike" accel="2.0" decel="4.5" sigma="0.5" length="2" maxSpeed="8" color="0,0,1"/>

    <!-- Routes -->
    <route id="N_left" edges="N_C C_W"/>
    <route id="N_straight" edges="N_C C_S"/>
    <route id="N_right" edges="N_C C_E"/>

    <route id="S_left" edges="S_C C_E"/>
    <route id="S_straight" edges="S_C C_N"/>
    <route id="S_right" edges="S_C C_W"/>

    <route id="E_left" edges="E_C C_N"/>
    <route id="E_straight" edges="E_C C_W"/>
    <route id="E_right" edges="E_C C_S"/>

    <route id="W_left" edges="W_C C_S"/>
    <route id="W_straight" edges="W_C C_E"/>
    <route id="W_right" edges="W_C C_N"/>
</routes>