<?xml version="1.0" encoding="UTF-8"?>
<configuration>
    <input>
        <net-file value="junction.net.xml"/>
        <route-files value="routes.rou.xml"/>
    </input>
    <time>
        <begin value="0"/>
        <end value="10000"/>
        <step-length value="1"/>
    </time>
</configuration>
